/*--------------------------------*- C++ -*----------------------------------*\
  =========                 |
  \\      /  F ield         | OpenFOAM: The Open Source CFD Toolbox
   \\    /   O peration     | Website:  https://openfoam.org
    \\  /    A nd           | Version:  dev
     \\/     M anipulation  |
\*---------------------------------------------------------------------------*/
FoamFile
{
    format      binary;
    class       volScalarField;
    location    "0";
    object      k;
}
// * * * * * * * * * * * * * * * * * * * * * * * * * * * * * * * * * * * * * //

dimensions      [0 2 -2 0 0 0 0];

internalField   uniform 4.5;

boundaryField
{
    "(exhaustport|ev.*|iv.*|intakeport|piston|cylinderhead|liner|sparkplug)"
    {
        type            kqRWallFunction;
        value           uniform 0;
    }

    outlet
    {
        type            inletOutlet;
        inletValue      $internalField;
        value           $internalField;
    }

    inlet
    {
        type            turbulentIntensityKineticEnergyInlet;
        intensity       0.05;
        value           $internalField;
    }

    // for the NCC case
    #includeEtc "caseDicts/setConstraintTypes"
    "ncc.*"
    {
        type            zeroGradient; 
    }   
}


// ************************************************************************* //
