/*--------------------------------*- C++ -*----------------------------------*\
  =========                 |
  \\      /  F ield         | OpenFOAM: The Open Source CFD Toolbox
   \\    /   O peration     | Website:  https://openfoam.org
    \\  /    A nd           | Version:  dev
     \\/     M anipulation  |
\*---------------------------------------------------------------------------*/
FoamFile
{
    format      ascii;
    class       volScalarField;
    location    "0";
    object      p;
}
// * * * * * * * * * * * * * * * * * * * * * * * * * * * * * * * * * * * * * //

dimensions      [1 -1 -2 0 0 0 0];

internalField   uniform 1.0e5;

boundaryField
{
    "(exhaustport|ev.*|iv.*|intakeport|piston|cylinderhead|liner|sparkplug)"
    {
        type            zeroGradient;
    }

    outlet
    {
        type            uniformTotalPressure;
        U               U;
        phi             phi;
        rho             rho;
        gamma           1.4;
        p0             
        {
        	type	table;
        	values	
        	(
        		#include "${FOAM_CASE}/constant/ExhaustPressureOpenFOAM.txt" 
        	);
        	outOfBounds		repeat;
        	interpolationScheme	linear;
        }
    }

    inlet
    {
        $outlet;
        p0             
        {
        	type	table;
        	values	
        	(
        		#include "${FOAM_CASE}/constant/IntakePressureOpenFOAM.txt" 
        	);
        	outOfBounds		repeat;
        	interpolationScheme	linear;
        }
    }

    // for the NCC case
    #includeEtc "caseDicts/setConstraintTypes"
    "ncc.*"
    {
        type            zeroGradient;
    }
}


// ************************************************************************* //
