/*--------------------------------*- C++ -*----------------------------------*\
  =========                 |
  \\      /  F ield         | OpenFOAM: The Open Source CFD Toolbox
   \\    /   O peration     | Website:  https://openfoam.org
    \\  /    A nd           | Version:  dev
     \\/     M anipulation  |
\*---------------------------------------------------------------------------*/
FoamFile
{
    format      ascii;
    class       volScalarField;
    location    "0";
    object      tracer;
}
// * * * * * * * * * * * * * * * * * * * * * * * * * * * * * * * * * * * * * //

dimensions      [0 0 0 0 0 0 0];

internalField   uniform 0;

boundaryField
{
    "(exhaustport|ev.*|iv.*|intakeport|piston|cylinderhead|liner|sparkplug|outlet)"
    {
        type            zeroGradient;
    }

    inlet
    {
        type          fixedValue;
        value         uniform 1.0;
    }
    // for the NCC case
    #includeEtc "caseDicts/setConstraintTypes"
    "ncc.*"
    {
        type            zeroGradient;
    }
}


// ************************************************************************* //
