/*--------------------------------*- C++ -*----------------------------------*\
  =========                 |
  \\      /  F ield         | OpenFOAM: The Open Source CFD Toolbox
   \\    /   O peration     | Website:  https://openfoam.org
    \\  /    A nd           | Version:  dev
     \\/     M anipulation  |
\*---------------------------------------------------------------------------*/
FoamFile
{
    format      ascii;
    class       volVectorField;
    location    "0";
    object      U;
}
// * * * * * * * * * * * * * * * * * * * * * * * * * * * * * * * * * * * * * //

dimensions      [0 1 -1 0 0 0 0];

internalField   uniform (0 0 0);

boundaryField
{
    "(exhaustport|ev_stem|iv_stem|intakeport|cylinderhead|sparkplug)"
    {
        type            noSlip;
    }

    "(outlet|inlet)"
    {
        type            pressureInletOutletVelocity;
        phi             phi;
        value           uniform (0 0 0);
    }

    "(ev_head|iv_head|piston|liner)"
    {
        type            movingWallVelocity;
        value           uniform (0 0 0);
    }

    // for the NCC case
    #includeEtc "caseDicts/setConstraintTypes"
    "ncc.*"
    {
        type            slip;
    }
}


// ************************************************************************* //
