/*--------------------------------*- C++ -*----------------------------------*\
  =========                 |
  \\      /  F ield         | OpenFOAM: The Open Source CFD Toolbox
   \\    /   O peration     | Website:  https://openfoam.org
    \\  /    A nd           | Version:  dev
     \\/     M anipulation  |
\*---------------------------------------------------------------------------*/
FoamFile
{
    format      ascii;
    class       dictionary;
    location    "constant";
    object      dynamicMeshDict;
}
// * * * * * * * * * * * * * * * * * * * * * * * * * * * * * * * * * * * * * //

mover
{
    type                multiValveEngine;

    libs                ("libfvMeshMoversMultiValveEngine.so");

    linerPatches        (liner);

    slidingPatches      (liner);
    piston
    {
        patches             (piston);
        axis                (0 0 1);
        motion
        {
            type            crankConnectingRodMotion;
            conRodLength    0.231;
            stroke          0.086;
        }
    }

}
// ************************************************************************* //
