/*--------------------------------*- C++ -*----------------------------------*\
  =========                 |
  \\      /  F ield         | OpenFOAM: The Open Source CFD Toolbox
   \\    /   O peration     | Website:  https://openfoam.org
    \\  /    A nd           | Version:  dev
     \\/     M anipulation  |
\*---------------------------------------------------------------------------*/
FoamFile
{
    version     2.0;
    format      binary;
    class       dictionary;
    location    "constant";
    object      momentumTransport;
}
// * * * * * * * * * * * * * * * * * * * * * * * * * * * * * * * * * * * * * //

simulationType  RAS;

RAS
{
    model           kOmegaSST;

    kOmegaSSTBaseCoeffs
    {
	alphaK1	0.85;
	alphaK2	1.0;
	alphaOmega1	0.5;
	alphaOmega2	0.856;
	beta1		0.075;
	beta2		0.0828;
	betaStar	0.09;
	gamma1		0.555;
	gamma2		0.44;
	a1		0.31;
	b1		1.0;
	c1		10.0;
	F3		no;
    }

    turbulence      on;

    printCoeffs     on;
}





// ************************************************************************* //
