/*--------------------------------*- C++ -*----------------------------------*\
  =========                 |
  \\      /  F ield         | OpenFOAM: The Open Source CFD Toolbox
   \\    /   O peration     | Website:  https://openfoam.org
    \\  /    A nd           | Version:  dev
     \\/     M anipulation  |
\*---------------------------------------------------------------------------*/
FoamFile
{
    format          ascii;
    class           dictionary;
    note            "mesh decomposition control dictionary";
    object          decomposeParDict;
}
// * * * * * * * * * * * * * * * * * * * * * * * * * * * * * * * * * * * * * //

numberOfSubdomains 36;

method          scotch;

simpleCoeffs
{
    n               ( 2 1 1 );
    delta           0.001;
}

hierarchicalCoeffs
{
    n               ( 1 2 1 );
    order           xyz;
    delta           0.001;
}

metisCoeffs
{
}

scotchCoeffs
{
}

manualCoeffs
{
    dataFile        "decompositionData";
}

structuredCoeffs
{
    patches         ( movingWall );
    method          scotch;
}


// ************************************************************************* //
