/*--------------------------------*- C++ -*----------------------------------*\
  =========                 |
  \\      /  F ield         | OpenFOAM: The Open Source CFD Toolbox
   \\    /   O peration     | Website:  https://openfoam.org
    \\  /    A nd           | Version:  dev
     \\/     M anipulation  |
\*---------------------------------------------------------------------------*/
FoamFile
{
    format      binary;
    class       volScalarField;
    location    "0";
    object      alphat;
}
// * * * * * * * * * * * * * * * * * * * * * * * * * * * * * * * * * * * * * //

dimensions      [1 -1 -1 0 0 0 0];

internalField   uniform 0;

boundaryField
{
    "(exhaustport|ev.*|iv.*|intakeport|piston|cylinderhead|liner|sparkplug)"
    {
        type            compressible::alphatWallFunction;
        Prt             0.85;
        value           uniform 0;
    }

    "(inlet|outlet)"
    {
        type            calculated;
        value           uniform 0;
    }

    // for the NCC case
    #includeEtc "caseDicts/setConstraintTypes"
    "ncc.*"
    {
        type            zeroGradient;  
    }  
}


// ************************************************************************* //
