/*--------------------------------*- C++ -*----------------------------------*\
  =========                 |
  \\      /  F ield         | OpenFOAM: The Open Source CFD Toolbox
   \\    /   O peration     | Website:  https://openfoam.org
    \\  /    A nd           | Version:  dev
     \\/     M anipulation  |
\*---------------------------------------------------------------------------*/
FoamFile
{
    format      binary;
    class       volScalarField;
    location    "0_orig";
    object      omega;
}
// * * * * * * * * * * * * * * * * * * * * * * * * * * * * * * * * * * * * * //

dimensions      [0 0 -1 0 0 0 0];

internalField   uniform 4.21;	//L_ref=Bore of engine=0.92m, k=4.5

boundaryField
{
    "(exhaustport|ev.*|iv.*|intakeport|piston|cylinderhead|liner|sparkplug)"
    {
        type            omegaWallFunction;
        Cmu             0.09;
        kappa           0.41;
        E               9.8;
        value           uniform 0;
    }

    outlet
    {
        type            inletOutlet;
        inletValue      $internalField; 
        value           $internalField;
    }

    inlet
    {
        type            turbulentMixingLengthFrequencyInlet;
        mixingLength    0.005;
        value           $internalField;
    }


    // for the NCC case
    #includeEtc "caseDicts/setConstraintTypes"
    "ncc.*"
    {
        type            zeroGradient; 
    }
}


// ************************************************************************* //
